var1
  PyMOL2.3          3D                             0

 22 22  0  0  0  0  0  0  0  0999 V2000
   20.8897    7.4812   31.6532 H   0  0  0  0  0  0  0  0  0  0  0  0
   21.3873    6.6638   31.3301 N   0  0  0  0  0  0  0  0  0  0  0  0
   20.7487    5.5080   31.1215 C   0  0  0  0  0  0  0  0  0  0  0  0
   19.5319    5.3796   31.2433 O   0  0  0  0  0  0  0  0  0  0  0  0
   21.5762    4.2864   30.6944 C   0  0  0  0  0  0  0  0  0  0  0  0
   23.0915    4.4911   30.6827 C   0  0  0  0  0  0  0  0  0  0  0  0
   23.6888    5.3698   29.7694 C   0  0  0  0  0  0  0  0  0  0  0  0
   25.0671    5.5919   29.8016 C   0  0  0  0  0  0  0  0  0  0  0  0
   25.7101    6.5802   28.8490 C   0  0  0  0  0  0  0  0  0  0  0  0
   25.8566    4.9019   30.7231 C   0  0  0  0  0  0  0  0  0  0  0  0
   25.2705    4.0092   31.6200 C   0  0  0  0  0  0  0  0  0  0  0  0
   23.8912    3.8073   31.6026 C   0  0  0  0  0  0  0  0  0  0  0  0
   22.3762    6.6961   31.1563 H   0  0  0  0  0  0  0  0  0  0  0  0
   21.3185    3.4656   31.3622 H   0  0  0  0  0  0  0  0  0  0  0  0
   21.2476    3.9881   29.7032 H   0  0  0  0  0  0  0  0  0  0  0  0
   23.0789    5.8960   29.0477 H   0  0  0  0  0  0  0  0  0  0  0  0
   24.9881    7.3051   28.4726 H   0  0  0  0  0  0  0  0  0  0  0  0
   26.5045    7.1383   29.3471 H   0  0  0  0  0  0  0  0  0  0  0  0
   26.1450    6.0542   27.9989 H   0  0  0  0  0  0  0  0  0  0  0  0
   26.9251    5.0640   30.7500 H   0  0  0  0  0  0  0  0  0  0  0  0
   25.8856    3.4782   32.3328 H   0  0  0  0  0  0  0  0  0  0  0  0
   23.4493    3.1153   32.3060 H   0  0  0  0  0  0  0  0  0  0  0  0
  1  2  1  0  0  0  0
  2  3  1  0  0  0  0
  2 13  1  0  0  0  0
  3  4  2  0  0  0  0
  3  5  1  0  0  0  0
  5  6  1  0  0  0  0
  5 14  1  0  0  0  0
  5 15  1  0  0  0  0
  6  7  2  0  0  0  0
  6 12  1  0  0  0  0
  7  8  1  0  0  0  0
  7 16  1  0  0  0  0
  8  9  1  0  0  0  0
  8 10  2  0  0  0  0
  9 17  1  0  0  0  0
  9 18  1  0  0  0  0
  9 19  1  0  0  0  0
 10 11  1  0  0  0  0
 10 20  1  0  0  0  0
 11 12  2  0  0  0  0
 11 21  1  0  0  0  0
 12 22  1  0  0  0  0
M  END
$$$$
var2
  PyMOL2.3          3D                             0

 23 23  0  0  0  0  0  0  0  0999 V2000
   26.4473    2.0326   32.0246 C   0  0  0  0  0  0  0  0  0  0  0  0
   27.4357    1.7531   32.3892 H   0  0  0  0  0  0  0  0  0  0  0  0
   25.5241    6.3004   29.1107 H   0  0  0  0  0  0  0  0  0  0  0  0
   20.8897    7.4812   31.6532 H   0  0  0  0  0  0  0  0  0  0  0  0
   25.7197    1.2842   32.3386 H   0  0  0  0  0  0  0  0  0  0  0  0
   26.4647    2.0891   30.9362 H   0  0  0  0  0  0  0  0  0  0  0  0
   26.0842    3.3067   32.5630 O   0  0  0  0  0  0  0  0  0  0  0  0
   21.3873    6.6638   31.3301 N   0  0  0  0  0  0  0  0  0  0  0  0
   20.7487    5.5080   31.1215 C   0  0  0  0  0  0  0  0  0  0  0  0
   19.5319    5.3796   31.2433 O   0  0  0  0  0  0  0  0  0  0  0  0
   21.5762    4.2864   30.6944 C   0  0  0  0  0  0  0  0  0  0  0  0
   23.0915    4.4911   30.6827 C   0  0  0  0  0  0  0  0  0  0  0  0
   23.6888    5.3698   29.7694 C   0  0  0  0  0  0  0  0  0  0  0  0
   25.0671    5.5919   29.8016 C   0  0  0  0  0  0  0  0  0  0  0  0
   25.8566    4.9019   30.7231 C   0  0  0  0  0  0  0  0  0  0  0  0
   25.2705    4.0092   31.6200 C   0  0  0  0  0  0  0  0  0  0  0  0
   23.8912    3.8073   31.6026 C   0  0  0  0  0  0  0  0  0  0  0  0
   22.3762    6.6961   31.1563 H   0  0  0  0  0  0  0  0  0  0  0  0
   21.3185    3.4656   31.3622 H   0  0  0  0  0  0  0  0  0  0  0  0
   21.2476    3.9881   29.7032 H   0  0  0  0  0  0  0  0  0  0  0  0
   23.0789    5.8960   29.0477 H   0  0  0  0  0  0  0  0  0  0  0  0
   26.9251    5.0640   30.7500 H   0  0  0  0  0  0  0  0  0  0  0  0
   23.4493    3.1153   32.3060 H   0  0  0  0  0  0  0  0  0  0  0  0
  1  2  1  0  0  0  0
  1  5  1  0  0  0  0
  1  6  1  0  0  0  0
  1  7  1  0  0  0  0
  4  8  1  0  0  0  0
  8  9  1  0  0  0  0
  8 18  1  0  0  0  0
  9 10  2  0  0  0  0
  9 11  1  0  0  0  0
 11 12  1  0  0  0  0
 11 19  1  0  0  0  0
 11 20  1  0  0  0  0
 12 13  2  0  0  0  0
 12 17  1  0  0  0  0
 13 14  1  0  0  0  0
 13 21  1  0  0  0  0
  3 14  1  0  0  0  0
 14 15  2  0  0  0  0
 15 16  1  0  0  0  0
 15 22  1  0  0  0  0
  7 16  1  0  0  0  0
 16 17  2  0  0  0  0
 17 23  1  0  0  0  0
M  END
$$$$
